FoamFile
{
    format      ascii;
    class       dictionary;
    location    "constant/Trenton_3U_BAM_2";
    object      radiationProperties;
}

radiation off;
radiationModel none;
