FoamFile
{
    format      ascii;
    class       dictionary;
    location    "constant/Dell_PowerEdge_R470_1U_1";
    object      radiationProperties;
}

radiation off;
radiationModel none;
