FoamFile
{
    format      ascii;
    class       dictionary;
    location    "constant/Eaton_SU3000RTXLCD2UTAA_UPS_0";
    object      radiationProperties;
}

radiation off;
radiationModel none;
