FoamFile
{
    format      ascii;
    class       dictionary;
    location    "constant/air_side_heater_2";
    object      radiationProperties;
}

radiation off;
radiationModel none;
