FoamFile
{
    format      ascii;
    class       dictionary;
    location    "constant/homogeneous_heater_1";
    object      radiationProperties;
}

radiation off;
radiationModel none;
