FoamFile
{
    format      ascii;
    class       dictionary;
    location    "constant/heated_block_0";
    object      radiationProperties;
}

radiation off;
radiationModel none;
