FoamFile
{
    format      ascii;
    class       dictionary;
    location    "constant/fluid";
    object      radiationProperties;
}

radiation off;
radiationModel none;
