FoamFile
{
    format      ascii;
    class       dictionary;
    location    "constant/test_heater_0";
    object      radiationProperties;
}

radiation off;
radiationModel none;
